testData/tamu2000/pfcases_100_zone3/Equ_tx2000_hr_5108_mod_v23_zone3_pslf.raw
0  100.000 
THIS IS A SYNTHETIC POWER SYSTEM MODEL THAT DOES NOT REPRESE
DATA RESEARCH PROJECT AND CONTAINS NO CEII.
1004,  2,  48.627,  -22.315,  0.000,  0.000,  1,  1.02350,  -56.5815,  'O DONNEL',  230.00,  9
1009,  2,  29.150,  -2.927,  0.000,  0.000,  1,  1.00738,  -47.6711,  'IRAAN 2 ',  13.800,  9
1021,  2,  44.225,  -16.125,  0.000,  0.000,  1,  1.00805,  -50.9453,  'BIG SPRI',  13.800,  9
1023,  2,  31.760,  -3.113,  0.000,  0.000,  1,  1.01000,  -48.3310,  'O DONNEL',  13.800,  9
1026,  2,  36.404,  -10.425,  0.000,  0.000,  1,  1.00437,  -49.1359,  'BIG SPRI',  13.800,  9
1033,  2,  189.322,  -9.674,  0.000,  0.000,  1,  1.00000,  -53.1540,  'MCCAMEY ',  230.00,  9
1035,  2,  48.523,  -10.286,  0.000,  0.000,  1,  1.00017,  -48.5601,  'BIG SPRI',  13.800,  9
1039,  2,  23.491,  -5.791,  0.000,  0.000,  1,  1.00000,  -44.1368,  'FORT STO',  22.000,  9
1042,  2,  50.298,  -3.778,  0.000,  0.000,  1,  1.00000,  -45.1691,  'FORSAN 1',  13.800,  9
1048,  2,  92.262,  3.209,  0.000,  0.000,  1,  1.00000,  -34.0718,  'MONAHANS',  18.000,  9
1049,  2,  63.698,  9.545,  0.000,  0.000,  1,  1.00000,  -26.9034,  'MONAHANS',  18.000,  9
1053,  2,  46.490,  -9.228,  0.000,  0.000,  1,  1.00391,  -48.3693,  'MONAHANS',  230.00,  9
1057,  2,  60.518,  -16.859,  0.000,  0.000,  1,  1.00474,  -49.4067,  'LENORAH ',  18.000,  9
1066,  2,  49.233,  -6.024,  0.000,  0.000,  1,  1.00000,  -45.2869,  'BIG SPRI',  13.800,  9
1070,  2,  56.491,  -0.895,  0.000,  0.000,  1,  1.04000,  -47.4500,  'IRAAN 1 ',  13.800,  9
1072,  3,  40.431,  -0.122,  0.000,  0.000,  1,  1.01000,  -52.8145,  'ODESSA 1',  18.000,  9
1073,  2,  28.668,  -0.131,  0.000,  0.000,  1,  1.01000,  -49.8118,  'ODESSA 1',  18.000,  9
1074,  2,  29.748,  1.331,  0.000,  0.000,  1,  1.01000,  -50.1697,  'ODESSA 1',  18.000,  9
1075,  2,  35.720,  1.234,  0.000,  0.000,  1,  1.01000,  -51.7412,  'ODESSA 1',  18.000,  9
1076,  2,  68.956,  -0.204,  0.000,  0.000,  1,  1.01000,  -54.9151,  'ODESSA 1',  18.000,  9
1077,  2,  30.551,  1.058,  0.000,  0.000,  1,  1.01000,  -50.4280,  'ODESSA 1',  18.000,  9
1081,  2,  93.014,  -41.581,  0.000,  0.000,  1,  1.01000,  -51.9975,  'ODESSA 1',  230.00,  9
1082,  2,  85.438,  -30.523,  0.000,  0.000,  1,  1.01583,  -47.1847,  'FORT STO',  115.00,  9
1084,  2,  126.072,  -40.787,  0.000,  0.000,  1,  1.03357,  -56.1645,  'BIG SPRI',  115.00,  9
1088,  2,  46.487,  -6.537,  0.000,  0.000,  1,  1.00000,  -50.4776,  'MCCAMEY ',  115.00,  9
1090,  2,  143.757,  -2.622,  0.000,  0.000,  1,  1.00627,  -53.5259,  'GOLDSMIT',  115.00,  9
2004,  2,  137.922,  -16.812,  0.000,  0.000,  2,  1.02000,  -83.3955,  'SAVOY 2 ',  13.800,  11
2005,  2,  117.840,  -14.444,  0.000,  0.000,  2,  1.02000,  -83.2346,  'SAVOY 3 ',  13.800,  11
2006,  2,  79.202,  -9.267,  0.000,  0.000,  2,  1.02000,  -82.6128,  'SAVOY 4 ',  13.800,  11
2013,  2,  5.021,  -12.226,  0.000,  0.000,  2,  1.04148,  -57.8735,  'PANHANDL',  18.000,  10
2019,  2,  7.482,  31.101,  0.000,  0.000,  2,  1.04000,  -58.6660,  'PANHANDL',  20.000,  10
2024,  2,  95.348,  -9.740,  0.000,  0.000,  2,  1.02000,  -82.4640,  'PARIS 2 ',  13.800,  11
2042,  2,  7.179,  -2.221,  0.000,  0.000,  2,  1.02873,  -52.8376,  'PANHANDL',  18.000,  10
2057,  3,  206.834,  -75.793,  0.000,  0.000,  2,  0.99000,  -73.5157,  'WICHITA ',  18.000,  11
2059,  2,  4.289,  -1.084,  0.000,  0.000,  2,  1.02768,  -51.8693,  'WHITE DE',  13.800,  10
2062,  2,  72.612,  -28.011,  0.000,  0.000,  2,  1.02000,  -69.4798,  'VERNON 1',  18.000,  10
2071,  2,  39.635,  -9.311,  0.000,  0.000,  2,  1.00000,  -72.4805,  'ARCHER 2',  18.000,  11
2078,  2,  76.018,  -21.548,  0.000,  0.000,  2,  1.02000,  -85.0063,  'MUENSTER',  13.800,  11
2095,  2,  2.993,  -1.337,  0.000,  0.000,  2,  1.03163,  -54.6858,  'PANHANDL',  13.800,  10
2100,  2,  10.950,  7.142,  0.000,  0.000,  2,  1.02111,  -56.8775,  'RALLS 1 ',  18.000,  10
2103,  2,  202.531,  -23.071,  0.000,  0.000,  2,  1.01951,  -84.2736,  'SHERMAN ',  20.000,  11
2104,  2,  148.129,  -16.339,  0.000,  0.000,  2,  1.01836,  -84.1011,  'SHERMAN ',  20.000,  11
2105,  2,  89.735,  -10.875,  0.000,  0.000,  2,  1.01571,  -83.6738,  'SHERMAN ',  20.000,  11
2115,  2,  63.240,  -7.995,  0.000,  0.000,  2,  1.01605,  -81.3374,  'PARIS 1 ',  13.800,  11
2116,  2,  118.033,  -12.783,  0.000,  0.000,  2,  1.01984,  -82.4337,  'PARIS 1 ',  13.800,  11
2117,  2,  56.143,  -6.481,  0.000,  0.000,  2,  1.01418,  -80.9778,  'PARIS 1 ',  13.800,  11
2118,  2,  52.590,  -6.512,  0.000,  0.000,  2,  1.01318,  -80.6897,  'PARIS 1 ',  13.800,  11
2119,  2,  92.994,  -10.868,  0.000,  0.000,  2,  1.01893,  -82.1758,  'PARIS 1 ',  13.800,  11
2120,  2,  54.233,  -6.832,  0.000,  0.000,  2,  1.01373,  -80.8043,  'PARIS 1 ',  13.800,  11
2123,  2,  26.745,  -14.018,  0.000,  0.000,  2,  1.03763,  -54.6879,  'PANHANDL',  161.00,  10
2127,  2,  278.755,  -174.486,  0.000,  0.000,  2,  1.05124,  -61.9280,  'MIAMI 0 ',  500.00,  10
3017,  2,  37.490,  4.288,  0.000,  0.000,  3,  1.01000,  -58.8374,  'BLACKWEL',  18.000,  27
3020,  2,  146.481,  -6.958,  0.000,  0.000,  3,  1.03000,  -64.9788,  'CHRISTOV',  13.800,  27
3028,  2,  64.368,  5.767,  0.000,  0.000,  3,  1.04000,  -70.7646,  'ABILENE ',  18.000,  27
3034,  2,  30.119,  -1.905,  0.000,  0.000,  3,  1.03000,  -50.9495,  'SNYDER 1',  22.000,  27
3039,  2,  30.859,  -7.618,  0.000,  0.000,  3,  1.04000,  -60.7894,  'ROSCOE 2',  13.800,  27
3045,  2,  10.399,  -5.419,  0.000,  0.000,  3,  1.04000,  -60.0533,  'SILVER 4',  13.800,  27
3048,  2,  734.154,  -664.625,  0.000,  0.000,  3,  1.03585,  -73.9911,  'ROSCOE 5',  500.00,  27
3055,  2,  55.045,  -1.943,  0.000,  0.000,  3,  1.04000,  -62.9634,  'WINGATE ',  13.800,  27
3056,  2,  37.488,  1.124,  0.000,  0.000,  3,  1.04000,  -61.2856,  'WINGATE ',  13.800,  27
3057,  2,  38.235,  0.723,  0.000,  0.000,  3,  1.04000,  -61.3921,  'WINGATE ',  13.800,  27
3060,  2,  21.245,  0.402,  0.000,  0.000,  3,  1.04000,  -56.3941,  'STERLING',  18.000,  27
3061,  2,  24.524,  0.411,  0.000,  0.000,  3,  1.04000,  -57.8054,  'STERLING',  18.000,  27
3062,  2,  33.951,  -4.065,  0.000,  0.000,  3,  1.04000,  -59.5513,  'STERLING',  18.000,  27
3063,  2,  30.213,  -0.168,  0.000,  0.000,  3,  1.04000,  -58.7997,  'STERLING',  18.000,  27
3065,  2,  2.359,  -6.566,  0.000,  0.000,  3,  1.01210,  -55.9708,  'ROSCOE 4',  18.000,  27
3068,  2,  31.654,  1.605,  0.000,  0.000,  3,  1.04000,  -58.6995,  'TRENT 1 ',  20.000,  27
3071,  2,  22.124,  -2.780,  0.000,  0.000,  3,  1.00692,  -58.7417,  'NOLAN 1 ',  24.000,  27
3074,  2,  74.375,  15.113,  0.000,  0.000,  3,  1.00000,  -106.1138,  'BRACKETT',  13.800,  28
3081,  2,  17.346,  -4.196,  0.000,  0.000,  3,  1.04000,  -58.5375,  'HERMLEIG',  20.000,  27
3084,  2,  19.668,  -9.870,  0.000,  0.000,  3,  1.00000,  -58.8986,  'MERKEL 1',  13.800,  27
3086,  2,  14.803,  -2.571,  0.000,  0.000,  3,  1.00237,  -54.4658,  'LORAINE ',  13.200,  27
3087,  2,  16.266,  -2.505,  0.000,  0.000,  3,  1.00307,  -53.5685,  'LORAINE ',  13.200,  27
3092,  2,  40.413,  6.280,  0.000,  0.000,  3,  1.04000,  -65.2082,  'ABILENE ',  13.800,  27
3095,  2,  25.728,  6.964,  0.000,  0.000,  3,  1.04000,  -59.0109,  'MERKEL 2',  18.000,  27
3098,  2,  12.677,  -1.447,  0.000,  0.000,  3,  1.04000,  -51.7379,  'FLUVANNA',  13.800,  27
3106,  3,  31.607,  -2.765,  0.000,  0.000,  3,  1.00000,  -86.5079,  'BUCHANAN',  13.200,  28
3110,  2,  12.488,  -1.302,  0.000,  0.000,  3,  1.04000,  -52.5528,  'FLUVANNA',  13.800,  27
3112,  2,  10.600,  -5.395,  0.000,  0.000,  3,  1.00485,  -53.7150,  'STERLING',  18.000,  27
3113,  2,  10.600,  -5.395,  0.000,  0.000,  3,  1.00485,  -53.7150,  'STERLING',  18.000,  27
3117,  2,  38.538,  -6.926,  0.000,  0.000,  3,  1.00193,  -53.7856,  'SYNDER 1',  13.800,  27
3118,  2,  38.060,  -10.104,  0.000,  0.000,  3,  1.00000,  -53.1391,  'SYNDER 2',  13.800,  27
3122,  2,  19.490,  -0.585,  0.000,  0.000,  3,  1.00000,  -51.5753,  'ROSCOE 1',  18.000,  27
3127,  2,  13.377,  -2.526,  0.000,  0.000,  3,  1.01852,  -57.7181,  'SWEETWAT',  115.00,  27
3129,  2,  23.681,  -39.645,  0.000,  0.000,  3,  1.02556,  -57.7658,  'ROSCOE 3',  115.00,  27
3131,  2,  150.436,  -16.657,  0.000,  0.000,  3,  1.02000,  -62.4437,  'TUSOCOLA',  115.00,  27
3137,  2,  126.360,  -18.238,  0.000,  0.000,  3,  1.02873,  -63.1426,  'SWEETWAT',  115.00,  27
3141,  2,  45.790,  -12.738,  0.000,  0.000,  3,  1.02028,  -58.8447,  'SWEETWAT',  115.00,  27
4010,  2,  58.156,  -6.105,  0.000,  0.000,  4,  1.03000,  -101.9964,  'SARITA 3',  20.000,  21
4026,  2,  225.631,  1.868,  0.000,  0.000,  4,  1.03000,  -89.8741,  'CHRISTIN',  13.800,  20
4030,  3,  250.617,  4.729,  0.000,  0.000,  4,  1.01000,  -81.3542,  'FANNIN 2',  13.800,  21
4050,  2,  27.636,  -11.067,  0.000,  0.000,  4,  1.00677,  -114.0586,  'SEBASTIA',  13.800,  19
4058,  2,  40.266,  8.835,  0.000,  0.000,  4,  1.03000,  -92.8686,  'GREGORY ',  13.800,  21
4059,  2,  47.190,  9.376,  0.000,  0.000,  4,  1.03000,  -93.2843,  'GREGORY ',  13.800,  21
4060,  2,  32.603,  6.582,  0.000,  0.000,  4,  1.03000,  -91.6925,  'GREGORY ',  13.800,  21
4061,  2,  41.436,  9.150,  0.000,  0.000,  4,  1.03000,  -92.3957,  'GREGORY ',  13.800,  21
4062,  2,  38.403,  7.190,  0.000,  0.000,  4,  1.03000,  -91.6184,  'GREGORY ',  13.800,  21
4063,  2,  40.705,  9.547,  0.000,  0.000,  4,  1.03000,  -92.3368,  'GREGORY ',  13.800,  21
4082,  2,  43.809,  3.837,  0.000,  0.000,  4,  1.04000,  -95.5298,  'CORPUS C',  13.800,  21
4083,  2,  46.742,  3.939,  0.000,  0.000,  4,  1.04000,  -95.9030,  'CORPUS C',  13.800,  21
4084,  2,  60.646,  2.855,  0.000,  0.000,  4,  1.04000,  -97.8827,  'CORPUS C',  13.800,  21
4085,  2,  74.019,  2.716,  0.000,  0.000,  4,  1.04000,  -97.3165,  'CORPUS C',  13.800,  21
4105,  2,  168.209,  20.778,  0.000,  0.000,  4,  1.01000,  -100.6552,  'TAFT 2 1',  18.000,  21
4115,  2,  125.984,  -1.282,  0.000,  0.000,  4,  1.04000,  -103.9371,  'LAREDO 1',  13.800,  20
4116,  2,  119.849,  -2.299,  0.000,  0.000,  4,  1.04000,  -103.8849,  'LAREDO 1',  13.800,  20
4142,  2,  138.324,  -7.235,  0.000,  0.000,  4,  1.04000,  -102.3628,  'SARITA 1',  13.800,  21
4153,  2,  315.824,  -17.087,  0.000,  0.000,  4,  1.04000,  -104.2668,  'ARMSTRON',  18.000,  21
4160,  2,  157.461,  35.301,  0.000,  0.000,  4,  1.03000,  -96.6646,  'CORPUS C',  13.800,  21
4161,  2,  73.397,  17.142,  0.000,  0.000,  4,  1.03000,  -94.4604,  'CORPUS C',  13.800,  21
4162,  2,  74.389,  15.727,  0.000,  0.000,  4,  1.03000,  -94.5111,  'CORPUS C',  13.800,  21
4166,  2,  47.687,  -5.788,  0.000,  0.000,  4,  1.01341,  -101.1506,  'SARITA 2',  13.800,  21
4177,  2,  88.799,  -5.107,  0.000,  0.000,  4,  1.04000,  -102.7889,  'BRUNI 1 ',  13.800,  20
4181,  2,  281.981,  16.530,  0.000,  0.000,  4,  1.01907,  -94.9416,  'TAFT 1 0',  230.00,  21
4183,  2,  384.974,  -24.521,  0.000,  0.000,  4,  1.02285,  -105.8431,  'SAN PERL',  230.00,  19
4192,  2,  926.743,  76.597,  0.000,  0.000,  4,  1.02000,  -107.1029,  'BROWNSVI',  230.00,  19
4194,  2,  830.077,  -108.372,  0.000,  0.000,  4,  1.01517,  -116.9541,  'SEBASTIA',  115.00,  19
4195,  2,  549.048,  -161.733,  0.000,  0.000,  4,  1.02720,  -97.8194,  'OILTON 0',  500.00,  20
5020,  2,  76.819,  -17.704,  0.000,  0.000,  5,  1.01148,  -76.8360,  'JACKSBOR',  13.800,  12
5037,  2,  303.425,  -2.741,  0.000,  0.000,  5,  1.02000,  -83.4939,  'DALLAS 1',  13.200,  16
5038,  2,  292.973,  -1.520,  0.000,  0.000,  5,  1.02000,  -83.4373,  'DALLAS 1',  13.200,  16
5039,  2,  723.779,  -27.095,  0.000,  0.000,  5,  1.02049,  -84.4625,  'DALLAS 1',  13.200,  16
5040,  2,  224.031,  -0.034,  0.000,  0.000,  5,  1.02000,  -82.8703,  'DALLAS 1',  13.200,  16
5041,  2,  323.714,  -5.802,  0.000,  0.000,  5,  1.02000,  -83.6009,  'DALLAS 1',  13.200,  16
5042,  2,  272.446,  -0.366,  0.000,  0.000,  5,  1.02000,  -83.3062,  'DALLAS 1',  13.200,  16
5057,  2,  149.872,  -26.948,  0.000,  0.000,  5,  1.01098,  -75.8883,  'GRAHAM 2',  13.800,  12
5058,  2,  112.170,  -18.710,  0.000,  0.000,  5,  1.00836,  -74.9585,  'GRAHAM 3',  13.800,  12
5067,  2,  475.696,  -13.913,  0.000,  0.000,  5,  1.03000,  -82.4561,  'ARLINGTO',  13.800,  17
5068,  2,  453.424,  -14.600,  0.000,  0.000,  5,  1.03000,  -82.3467,  'ARLINGTO',  13.800,  17
5069,  2,  426.848,  -13.114,  0.000,  0.000,  5,  1.03000,  -82.2000,  'ARLINGTO',  13.800,  17
5166,  2,  214.897,  -13.899,  0.000,  0.000,  5,  1.04000,  -83.7175,  'DENTON 1',  13.800,  17
5198,  2,  175.744,  -28.821,  0.000,  0.000,  5,  1.01343,  -78.7041,  'BRYSON 1',  18.000,  12
5206,  2,  135.315,  -14.371,  0.000,  0.000,  5,  1.01219,  -78.8433,  'POOLVILL',  13.800,  12
5207,  2,  237.575,  -26.827,  0.000,  0.000,  5,  1.01483,  -79.7623,  'POOLVILL',  13.800,  12
5208,  2,  190.923,  -21.140,  0.000,  0.000,  5,  1.01403,  -79.4875,  'POOLVILL',  13.800,  12
5238,  2,  170.600,  -77.297,  0.000,  0.000,  5,  1.01427,  -75.7776,  'OLNEY 1 ',  18.000,  12
5243,  2,  155.721,  -20.209,  0.000,  0.000,  5,  1.02391,  -83.0106,  'GOLDTHWA',  13.800,  18
5262,  2,  399.719,  16.792,  0.000,  0.000,  5,  1.01000,  -75.1069,  'GLEN ROS',  13.800,  18
5263,  2,  551.127,  14.792,  0.000,  0.000,  5,  1.01000,  -76.3387,  'GLEN ROS',  13.800,  18
5281,  2,  180.684,  -0.014,  0.000,  0.000,  5,  1.01409,  -83.9185,  'TEMPLE 1',  13.800,  13
5282,  2,  212.175,  -0.348,  0.000,  0.000,  5,  1.01511,  -84.1824,  'TEMPLE 1',  13.800,  13
5283,  2,  278.652,  -2.196,  0.000,  0.000,  5,  1.01650,  -84.5207,  'TEMPLE 1',  13.800,  13
5302,  2,  310.787,  -5.721,  0.000,  0.000,  5,  1.04000,  -83.1310,  'MCKINNEY',  13.800,  16
5303,  2,  421.733,  -13.269,  0.000,  0.000,  5,  1.04000,  -83.7747,  'MCKINNEY',  13.800,  16
5319,  2,  215.757,  -2.946,  0.000,  0.000,  5,  1.01000,  -79.7621,  'GRANBURY',  13.200,  18
5320,  2,  197.747,  -4.215,  0.000,  0.000,  5,  1.01000,  -79.5899,  'GRANBURY',  13.200,  18
5321,  2,  223.266,  -2.960,  0.000,  0.000,  5,  1.01000,  -79.8316,  'GRANBURY',  13.200,  18
5324,  2,  252.744,  2.793,  0.000,  0.000,  5,  1.04000,  -82.8500,  'DALLAS 2',  13.800,  17
5325,  2,  252.668,  4.652,  0.000,  0.000,  5,  1.04000,  -82.8436,  'DALLAS 2',  13.800,  17
5326,  2,  778.689,  -46.367,  0.000,  0.000,  5,  1.03742,  -84.6257,  'DALLAS 2',  13.800,  17
5360,  3,  199.090,  2.230,  0.000,  0.000,  5,  1.01000,  -82.7731,  'RIESEL 1',  13.800,  13
5364,  2,  248.152,  -20.792,  0.000,  0.000,  5,  1.01521,  -80.4115,  'BRIDGEPO',  13.800,  12
5365,  2,  126.856,  -9.677,  0.000,  0.000,  5,  1.01265,  -79.5320,  'BRIDGEPO',  13.800,  12
5366,  2,  111.290,  -7.953,  0.000,  0.000,  5,  1.01207,  -79.2977,  'BRIDGEPO',  13.800,  12
5367,  2,  112.829,  -7.750,  0.000,  0.000,  5,  1.01215,  -79.3552,  'BRIDGEPO',  13.800,  12
5368,  2,  170.877,  -14.913,  0.000,  0.000,  5,  1.01402,  -79.9820,  'BRIDGEPO',  13.800,  12
5369,  2,  107.859,  -7.769,  0.000,  0.000,  5,  1.01177,  -79.1958,  'BRIDGEPO',  13.800,  12
5382,  2,  227.623,  11.209,  0.000,  0.000,  5,  1.04000,  -84.2459,  'ENNIS 2 ',  13.800,  14
5383,  2,  199.406,  11.530,  0.000,  0.000,  5,  1.04000,  -84.0839,  'ENNIS 3 ',  13.800,  14
5399,  2,  122.271,  -34.951,  0.000,  0.000,  5,  1.03593,  -73.2051,  'ALBANY 1',  13.800,  15
5415,  2,  86.912,  -11.649,  0.000,  0.000,  5,  1.01599,  -78.1328,  'PALO PIN',  13.800,  12
5416,  2,  88.293,  -11.348,  0.000,  0.000,  5,  1.01587,  -78.1193,  'PALO PIN',  13.800,  12
5417,  2,  96.892,  -12.645,  0.000,  0.000,  5,  1.01637,  -78.2700,  'PALO PIN',  13.800,  12
5418,  2,  99.663,  -14.274,  0.000,  0.000,  5,  1.01683,  -78.3323,  'PALO PIN',  13.800,  12
5419,  2,  164.313,  -26.315,  0.000,  0.000,  5,  1.01823,  -78.7680,  'PALO PIN',  13.800,  12
5444,  2,  1678.581,  -129.445,  0.000,  0.000,  5,  1.01540,  -82.8982,  'MIDLOTHI',  500.00,  17
6006,  2,  79.999,  -2.266,  0.000,  0.000,  6,  1.04000,  -82.5925,  'BASTROP ',  13.800,  25
6007,  2,  131.277,  -3.579,  0.000,  0.000,  6,  1.04000,  -81.5938,  'BASTROP ',  13.800,  25
6008,  2,  67.645,  0.589,  0.000,  0.000,  6,  1.04000,  -82.5232,  'BASTROP ',  13.800,  25
6009,  2,  44.435,  2.146,  0.000,  0.000,  6,  1.04000,  -81.9287,  'BASTROP ',  13.800,  25
6010,  2,  59.530,  0.195,  0.000,  0.000,  6,  1.04000,  -82.3787,  'BASTROP ',  13.800,  25
6042,  2,  26.818,  4.568,  0.000,  0.000,  6,  1.04000,  -84.9014,  'AUSTIN 3',  13.800,  23
6062,  1,  341.711,  3.396,  0.000,  0.000,  6,  1.01606,  -80.8194,  'BRENHAM ',  500.00,  25
6069,  2,  187.703,  -7.728,  0.000,  0.000,  6,  1.03000,  -83.9372,  'MARION 1',  18.000,  22
6070,  2,  80.161,  -1.050,  0.000,  0.000,  6,  1.03000,  -82.9546,  'MARION 1',  18.000,  22
6071,  2,  237.021,  -9.492,  0.000,  0.000,  6,  1.03000,  -84.0799,  'MARION 1',  18.000,  22
6072,  2,  95.021,  -0.923,  0.000,  0.000,  6,  1.03000,  -83.2530,  'MARION 1',  18.000,  22
6073,  2,  147.657,  -5.291,  0.000,  0.000,  6,  1.03000,  -83.7094,  'MARION 1',  18.000,  22
6074,  2,  148.859,  -6.305,  0.000,  0.000,  6,  1.03000,  -83.7172,  'MARION 1',  18.000,  22
6078,  2,  54.880,  -21.648,  0.000,  0.000,  6,  1.00044,  -78.7647,  'LA GRANG',  22.000,  25
6079,  2,  101.050,  -40.105,  0.000,  0.000,  6,  1.00476,  -79.3668,  'LA GRANG',  22.000,  25
6080,  2,  78.780,  -30.609,  0.000,  0.000,  6,  1.00335,  -79.1769,  'LA GRANG',  22.000,  25
6106,  2,  96.794,  -19.183,  0.000,  0.000,  6,  1.01796,  -80.3496,  'WINCHEST',  13.800,  25
6110,  2,  205.321,  1.053,  0.000,  0.000,  6,  1.04000,  -83.6349,  'ROCKDALE',  13.800,  25
6111,  2,  208.046,  1.555,  0.000,  0.000,  6,  1.04000,  -83.5231,  'ROCKDALE',  13.800,  25
6145,  2,  166.636,  8.136,  0.000,  0.000,  6,  1.03000,  -80.7374,  'SAN ANTO',  13.800,  22
6146,  2,  172.669,  8.277,  0.000,  0.000,  6,  1.03000,  -80.8744,  'SAN ANTO',  13.800,  22
6147,  3,  193.898,  5.435,  0.000,  0.000,  6,  1.03000,  -82.3026,  'SAN ANTO',  13.800,  22
6148,  2,  312.809,  2.782,  0.000,  0.000,  6,  1.03000,  -83.3750,  'SAN ANTO',  13.800,  22
6149,  2,  595.457,  1.591,  0.000,  0.000,  6,  1.03000,  -83.8898,  'SAN ANTO',  13.800,  22
6164,  2,  119.218,  -5.217,  0.000,  0.000,  6,  1.03000,  -81.8872,  'SEGUIN 1',  13.800,  22
6165,  2,  113.346,  -4.883,  0.000,  0.000,  6,  1.03000,  -81.7146,  'SEGUIN 1',  13.800,  22
6166,  2,  244.159,  -15.908,  0.000,  0.000,  6,  1.03000,  -82.6909,  'SEGUIN 1',  13.800,  22
6167,  2,  135.258,  -6.401,  0.000,  0.000,  6,  1.03000,  -82.0751,  'SEGUIN 1',  13.800,  22
6188,  1,  282.616,  13.022,  0.000,  0.000,  6,  0.98186,  -81.7727,  'COLUMBUS',  230.00,  25
6195,  1,  70.544,  5.209,  0.000,  0.000,  6,  0.97104,  -87.6174,  'INDUSTRY',  115.00,  25
6214,  2,  55.336,  -5.350,  0.000,  0.000,  6,  1.04000,  -84.4849,  'MARBLE F',  13.800,  23
6215,  2,  265.567,  -48.958,  0.000,  0.000,  6,  1.04000,  -85.1838,  'MARBLE F',  13.800,  23
6216,  2,  98.945,  -14.097,  0.000,  0.000,  6,  1.04000,  -84.8812,  'MARBLE F',  13.800,  23
6243,  2,  96.699,  -5.091,  0.000,  0.000,  6,  1.04000,  -82.5483,  'ELMENDOR',  13.800,  22
6244,  2,  116.578,  -5.509,  0.000,  0.000,  6,  1.04000,  -81.6707,  'ELMENDOR',  13.800,  22
...
 0 /End of Bus data, Begin Generator data
1004,  '1',  103.353,  -30.380,  44.940,  -30.380,  1.01000,  0,  253.200,  0.00000,  1.00000,  0.00000,  0.00000,  1.00000,  1,  100.0,  211.000,  63.300
1009,  '1',  40.407,  -11.880,  17.570,  -11.880,  1.00000,  0,  99.000,  0.00000,  1.00000,  0.00000,  0.00000,  1.00000,  1,  100.0,  82.500,  24.750
1021,  '1',  97.723,  -28.730,  42.490,  -28.730,  1.00000,  0,  239.400,  0.00000,  1.00000,  0.00000,  0.00000,  1.00000,  1,  100.0,  199.500,  59.850
1023,  '1',  88.168,  -10.062,  38.340,  -25.920,  1.01000,  0,  216.000,  0.00000,  1.00000,  0.00000,  0.00000,  1.00000,  1,  100.0,  180.000,  54.000
1026,  '1',  60.836,  -17.880,  26.450,  -17.880,  1.00000,  0,  149.040,  0.00000,  1.00000,  0.00000,  0.00000,  1.00000,  1,  100.0,  124.200,  37.260
1033,  '1',  136.171,  -7.079,  59.210,  -40.030,  1.00000,  0,  333.600,  0.00000,  1.00000,  0.00000,  0.00000,  1.00000,  1,  100.0,  278.000,  83.400
1035,  '1',  44.084,  -12.960,  19.170,  -12.960,  1.00000,  0,  108.000,  0.00000,  1.00000,  0.00000,  0.00000,  1.00000,  1,  100.0,  90.000,  27.000
1039,  '1',  72.252,  -16.847,  31.420,  -21.240,  1.00000,  0,  177.000,  0.00000,  1.00000,  0.00000,  0.00000,  1.00000,  1,  100.0,  147.500,  44.250
1042,  '1',  79.613,  -7.390,  25.960,  -17.550,  1.00000,  0,  146.280,  0.00000,  1.00000,  0.00000,  0.00000,  1.00000,  1,  100.0,  121.900,  36.570
1048,  '1',  234.140,  13.488,  165.530,  -36.100,  1.00000,  0,  390.240,  0.00000,  0.10170,  0.00000,  0.00000,  1.00000,  1,  100.0,  325.200,  97.560
1049,  '1',  234.140,  31.481,  165.530,  -36.100,  1.00000,  0,  390.240,  0.00000,  0.13490,  0.00000,  0.00000,  1.00000,  1,  100.0,  325.200,  97.560
1053,  '1',  103.700,  -19.850,  91.010,  -19.850,  1.00000,  0,  214.560,  0.00000,  0.16870,  0.00000,  0.00000,  1.00000,  1,  100.0,  178.800,  53.640
1057,  '1',  78.372,  -17.280,  25.560,  -17.280,  1.00000,  0,  144.000,  0.00000,  1.00000,  0.00000,  0.00000,  1.00000,  1,  100.0,  120.000,  36.000
1066,  '1',  69.803,  -8.833,  30.350,  -20.520,  1.00000,  0,  171.000,  0.00000,  1.00000,  0.00000,  0.00000,  1.00000,  1,  100.0,  142.500,  42.750
1070,  '1',  78.620,  23.998,  34.190,  -23.110,  1.04000,  0,  192.600,  0.00000,  1.00000,  0.00000,  0.00000,  1.00000,  1,  100.0,  160.500,  48.150
1072,  '1',  107.826,  6.578,  97.800,  -21.330,  1.01000,  0,  230.560,  0.00000,  0.30820,  0.00000,  0.00000,  1.00000,  1,  100.0,  192.130,  57.640
1073,  '1',  111.440,  2.336,  97.800,  -21.330,  1.01000,  0,  230.560,  0.00000,  0.19480,  0.00000,  0.00000,  1.00000,  1,  100.0,  192.130,  57.640
1074,  '1',  111.440,  8.218,  97.800,  -21.330,  1.01000,  0,  230.560,  0.00000,  0.20960,  0.00000,  0.00000,  1.00000,  1,  100.0,  192.130,  57.640
1075,  '1',  111.440,  9.099,  97.800,  -21.330,  1.01000,  0,  230.560,  0.00000,  0.12370,  0.00000,  0.00000,  1.00000,  1,  100.0,  192.130,  57.640
1076,  '1',  111.440,  14.316,  97.800,  -21.330,  1.01000,  0,  230.560,  0.00000,  0.10660,  0.00000,  0.00000,  1.00000,  1,  100.0,  192.130,  57.640
1077,  '1',  111.440,  7.375,  97.800,  -21.330,  1.01000,  0,  230.560,  0.00000,  0.15380,  0.00000,  0.00000,  1.00000,  1,  100.0,  192.130,  57.640
1081,  '1',  206.280,  22.309,  145.830,  -31.800,  1.01000,  0,  343.800,  0.00000,  0.14960,  0.00000,  0.00000,  1.00000,  1,  100.0,  286.500,  85.950
1082,  '1',  73.473,  -21.600,  31.950,  -21.600,  1.00000,  0,  180.000,  0.00000,  1.00000,  0.00000,  0.00000,  1.00000,  1,  100.0,  150.000,  45.000
1084,  '1',  56.571,  24.600,  24.600,  -16.630,  1.04000,  0,  138.600,  0.00000,  1.00000,  0.00000,  0.00000,  1.00000,  1,  100.0,  115.500,  34.650
1088,  '1',  36.737,  -4.470,  15.970,  -10.800,  1.00000,  0,  90.000,  0.00000,  1.00000,  0.00000,  0.00000,  1.00000,  1,  100.0,  75.000,  22.500
1090,  '1',  35.266,  40.150,  40.150,  -27.140,  1.02000,  0,  226.200,  0.00000,  1.00000,  0.00000,  0.00000,  1.00000,  1,  100.0,  188.500,  56.550
2004,  '1',  117.540,  -21.513,  199.430,  -43.490,  1.02000,  0,  470.160,  0.00000,  0.10640,  0.00000,  0.00000,  1.00000,  1,  100.0,  391.800,  117.540
2005,  '1',  117.540,  -18.849,  199.430,  -43.490,  1.02000,  0,  470.160,  0.00000,  0.22750,  0.00000,  0.00000,  1.00000,  1,  100.0,  391.800,  117.540
2006,  '1',  117.540,  -11.143,  199.430,  -43.490,  1.02000,  0,  470.160,  0.00000,  0.20040,  0.00000,  0.00000,  1.00000,  1,  100.0,  391.800,  117.540
2013,  '1',  139.059,  -28.890,  42.730,  -28.890,  1.00000,  0,  240.720,  0.00000,  1.00000,  0.00000,  0.00000,  1.00000,  1,  100.0,  200.600,  60.180
2019,  '1',  204.817,  -3.048,  46.430,  -31.390,  1.04000,  0,  261.600,  0.00000,  1.00000,  0.00000,  0.00000,  1.00000,  1,  100.0,  218.000,  65.400
2024,  '1',  96.670,  -14.401,  84.830,  -18.500,  1.02000,  0,  200.000,  0.00000,  0.15080,  0.00000,  0.00000,  1.00000,  1,  100.0,  166.670,  50.000
2042,  '1',  57.856,  -11.460,  16.950,  -11.460,  1.01000,  0,  95.520,  0.00000,  1.00000,  0.00000,  0.00000,  1.00000,  1,  100.0,  79.600,  23.880
2057,  '1',  184.335,  -97.246,  335.520,  -87.840,  0.99000,  0,  864.000,  0.00000,  0.17700,  0.00000,  0.00000,  1.00000,  1,  100.0,  720.000,  216.000
2059,  '1',  56.372,  -11.520,  17.040,  -11.520,  1.00000,  0,  96.000,  0.00000,  1.00000,  0.00000,  0.00000,  1.00000,  1,  100.0,  80.000,  24.000
2062,  '1',  69.597,  -15.478,  28.840,  -19.500,  1.02000,  0,  162.480,  0.00000,  1.00000,  0.00000,  0.00000,  1.00000,  1,  100.0,  135.400,  40.620
2071,  '1',  59.513,  -10.864,  31.950,  -21.600,  1.00000,  0,  180.000,  0.00000,  1.00000,  0.00000,  0.00000,  1.00000,  1,  100.0,  150.000,  45.000
2078,  '1',  44.637,  -10.467,  23.960,  -16.200,  1.02000,  0,  135.000,  0.00000,  1.00000,  0.00000,  0.00000,  1.00000,  1,  100.0,  112.500,  33.750
2095,  '1',  73.481,  -11.450,  16.930,  -11.450,  1.00000,  0,  95.400,  0.00000,  1.00000,  0.00000,  0.00000,  1.00000,  1,  100.0,  79.500,  23.850
2100,  '1',  76.538,  -21.600,  31.950,  -21.600,  1.02000,  0,  180.000,  0.00000,  1.00000,  0.00000,  0.00000,  1.00000,  1,  100.0,  150.000,  45.000
2103,  '1',  80.320,  -29.720,  136.280,  -29.720,  1.00000,  0,  321.280,  0.00000,  0.33430,  0.00000,  0.00000,  1.00000,  1,  100.0,  267.730,  80.320
2104,  '1',  80.320,  -29.720,  136.280,  -29.720,  1.00000,  0,  321.280,  0.00000,  0.31470,  0.00000,  0.00000,  1.00000,  1,  100.0,  267.730,  80.320
2105,  '1',  80.320,  -29.720,  136.280,  -29.720,  1.00000,  0,  321.280,  0.00000,  0.14160,  0.00000,  0.00000,  1.00000,  1,  100.0,  267.730,  80.320
2115,  '1',  107.130,  -20.500,  94.020,  -20.500,  1.00000,  0,  221.660,  0.00000,  0.14250,  0.00000,  0.00000,  1.00000,  1,  100.0,  184.720,  55.410
2116,  '1',  107.130,  -20.500,  94.020,  -20.500,  1.00000,  0,  221.660,  0.00000,  0.18690,  0.00000,  0.00000,  1.00000,  1,  100.0,  184.720,  55.410
2117,  '1',  107.130,  -20.500,  94.020,  -20.500,  1.00000,  0,  221.660,  0.00000,  0.32540,  0.00000,  0.00000,  1.00000,  1,  100.0,  184.720,  55.410
2118,  '1',  107.130,  -20.500,  94.020,  -20.500,  1.00000,  0,  221.660,  0.00000,  0.10610,  0.00000,  0.00000,  1.00000,  1,  100.0,  184.720,  55.410
2119,  '1',  107.130,  -20.500,  94.020,  -20.500,  1.00000,  0,  221.660,  0.00000,  0.13600,  0.00000,  0.00000,  1.00000,  1,  100.0,  184.720,  55.410
2120,  '1',  107.130,  -20.500,  94.020,  -20.500,  1.01000,  0,  221.660,  0.00000,  0.20680,  0.00000,  0.00000,  1.00000,  1,  100.0,  184.720,  55.410
2123,  '1',  132.070,  -26.160,  38.700,  -26.160,  1.00000,  0,  218.040,  0.00000,  1.00000,  0.00000,  0.00000,  1.00000,  1,  100.0,  181.700,  54.510
2127,  '1',  192.910,  -41.560,  61.470,  -41.560,  1.04000,  0,  346.320,  0.00000,  1.00000,  0.00000,  0.00000,  1.00000,  1,  100.0,  288.600,  86.580
3017,  '1',  83.028,  -9.054,  36.100,  -24.410,  1.01000,  0,  203.400,  0.00000,  1.00000,  0.00000,  0.00000,  1.00000,  1,  100.0,  169.500,  50.850
3020,  '1',  73.473,  4.626,  31.950,  -21.600,  1.03000,  0,  180.000,  0.00000,  1.00000,  0.00000,  0.00000,  1.00000,  1,  100.0,  150.000,  45.000
3028,  '1',  79.350,  24.897,  42.600,  -28.800,  1.04000,  0,  240.000,  0.00000,  1.00000,  0.00000,  0.00000,  1.00000,  1,  100.0,  200.000,  60.000
3034,  '1',  63.919,  5.428,  27.800,  -18.790,  1.03000,  0,  156.600,  0.00000,  1.00000,  0.00000,  0.00000,  1.00000,  1,  100.0,  130.500,  39.150
3039,  '1',  102.373,  26.632,  44.520,  -30.100,  1.04000,  0,  250.800,  0.00000,  1.00000,  0.00000,  0.00000,  1.00000,  1,  100.0,  209.000,  62.700
3045,  '1',  134.100,  17.490,  227.520,  -49.620,  1.04000,  0,  536.400,  0.00000,  0.14470,  0.00000,  0.00000,  1.00000,  1,  100.0,  447.000,  134.100
3048,  '1',  118.047,  51.330,  51.330,  -34.700,  1.04000,  0,  289.200,  0.00000,  1.00000,  0.00000,  0.00000,  1.00000,  1,  100.0,  241.000,  72.300
3055,  '1',  120.092,  23.770,  52.220,  -35.300,  1.04000,  0,  294.200,  0.00000,  1.00000,  0.00000,  0.00000,  1.00000,  1,  100.0,  245.170,  73.550
3056,  '1',  120.092,  14.533,  52.220,  -35.300,  1.04000,  0,  294.200,  0.00000,  1.00000,  0.00000,  0.00000,  1.00000,  1,  100.0,  245.170,  73.550
3057,  '1',  120.092,  13.562,  52.220,  -35.300,  1.04000,  0,  294.200,  0.00000,  1.00000,  0.00000,  0.00000,  1.00000,  1,  100.0,  245.170,  73.550
3060,  '1',  81.128,  7.780,  35.280,  -23.850,  1.04000,  0,  198.750,  0.00000,  1.00000,  0.00000,  0.00000,  1.00000,  1,  100.0,  165.630,  49.690
3061,  '1',  81.128,  9.229,  35.280,  -23.850,  1.04000,  0,  198.750,  0.00000,  1.00000,  0.00000,  0.00000,  1.00000,  1,  100.0,  165.630,  49.690
3062,  '1',  81.128,  14.930,  35.280,  -23.850,  1.04000,  0,  198.750,  0.00000,  1.00000,  0.00000,  0.00000,  1.00000,  1,  100.0,  165.630,  49.690
3063,  '1',  81.128,  10.789,  35.280,  -23.850,  1.04000,  0,  198.750,  0.00000,  1.00000,  0.00000,  0.00000,  1.00000,  1,  100.0,  165.630,  49.690
3065,  '1',  39.427,  -11.590,  17.150,  -11.590,  1.00000,  0,  96.600,  0.00000,  1.00000,  0.00000,  0.00000,  1.00000,  1,  100.0,  80.500,  24.150
3068,  '1',  73.473,  22.179,  31.950,  -21.600,  1.04000,  0,  180.000,  0.00000,  1.00000,  0.00000,  0.00000,  1.00000,  1,  100.0,  150.000,  45.000
3071,  '1',  83.368,  -24.510,  36.250,  -24.510,  1.00000,  0,  204.240,  0.00000,  1.00000,  0.00000,  0.00000,  1.00000,  1,  100.0,  170.200,  51.060
3074,  '1',  48.884,  19.316,  21.260,  -14.370,  1.00000,  0,  119.760,  0.00000,  1.00000,  0.00000,  0.00000,  1.00000,  1,  100.0,  99.800,  29.940
3081,  '1',  121.966,  17.310,  53.040,  -35.860,  1.04000,  0,  298.800,  0.00000,  1.00000,  0.00000,  0.00000,  1.00000,  1,  100.0,  249.000,  74.700
3084,  '1',  113.881,  -24.315,  49.520,  -33.480,  1.00000,  0,  279.000,  0.00000,  1.00000,  0.00000,  0.00000,  1.00000,  1,  100.0,  232.500,  69.750
3086,  '1',  36.737,  -10.800,  15.970,  -10.800,  1.00000,  0,  90.000,  0.00000,  1.00000,  0.00000,  0.00000,  1.00000,  1,  100.0,  75.000,  22.500
3087,  '1',  48.982,  -10.800,  15.970,  -10.800,  1.00000,  0,  90.000,  0.00000,  1.00000,  0.00000,  0.00000,  1.00000,  1,  100.0,  75.000,  22.500
3092,  '1',  97.965,  14.310,  42.600,  -28.800,  1.04000,  0,  240.000,  0.00000,  1.00000,  0.00000,  0.00000,  1.00000,  1,  100.0,  200.000,  60.000
3095,  '1',  59.073,  9.131,  25.690,  -17.370,  1.04000,  0,  144.720,  0.00000,  1.00000,  0.00000,  0.00000,  1.00000,  1,  100.0,  120.600,  36.180
3098,  '1',  78.372,  8.073,  34.080,  -23.040,  1.04000,  0,  192.000,  0.00000,  1.00000,  0.00000,  0.00000,  1.00000,  1,  100.0,  160.000,  48.000
3106,  '1',  26.537,  -10.841,  62.477,  -2.690,  1.00000,  0,  65.880,  0.00000,  0.29220,  0.00000,  0.00000,  1.00000,  1,  100.0,  162.800,  0.000
3110,  '1',  41.145,  6.260,  17.890,  -12.100,  1.04000,  0,  100.800,  0.00000,  1.00000,  0.00000,  0.00000,  1.00000,  1,  100.0,  84.000,  25.200
3112,  '1',  36.639,  -10.770,  15.930,  -10.770,  1.00000,  0,  89.760,  0.00000,  1.00000,  0.00000,  0.00000,  1.00000,  1,  100.0,  74.800,  22.440
3113,  '1',  36.639,  -10.770,  15.930,  -10.770,  1.00000,  0,  89.760,  0.00000,  1.00000,  0.00000,  0.00000,  1.00000,  1,  100.0,  74.800,  22.440
3117,  '1',  30.859,  -9.070,  13.420,  -9.070,  1.00000,  0,  75.600,  0.00000,  1.00000,  0.00000,  0.00000,  1.00000,  1,  100.0,  63.000,  18.900
3118,  '1',  58.779,  -16.637,  25.560,  -17.280,  1.00000,  0,  144.000,  0.00000,  1.00000,  0.00000,  0.00000,  1.00000,  1,  100.0,  120.000,  36.000
3122,  '1',  96.495,  -18.315,  41.960,  -28.370,  1.00000,  0,  236.400,  0.00000,  1.00000,  0.00000,  0.00000,  1.00000,  1,  100.0,  197.000,  59.100
3127,  '1',  66.126,  -19.440,  28.760,  -19.440,  1.00000,  0,  162.000,  0.00000,  1.00000,  0.00000,  0.00000,  1.00000,  1,  100.0,  135.000,  40.500
3129,  '1',  61.966,  -18.220,  26.940,  -18.220,  1.00000,  0,  151.800,  0.00000,  1.00000,  0.00000,  0.00000,  1.00000,  1,  100.0,  126.500,  37.950
3131,  '1',  55.840,  -1.015,  24.280,  -16.420,  1.02000,  0,  136.800,  0.00000,  1.00000,  0.00000,  0.00000,  1.00000,  1,  100.0,  114.000,  34.200
3137,  '1',  49.570,  21.560,  21.560,  -14.570,  1.03000,  0,  121.440,  0.00000,  1.00000,  0.00000,  0.00000,  1.00000,  1,  100.0,  101.200,  30.360
3141,  '1',  44.816,  -13.180,  19.490,  -13.180,  1.00000,  0,  109.800,  0.00000,  1.00000,  0.00000,  0.00000,  1.00000,  1,  100.0,  91.500,  27.450
4010,  '1',  98.748,  5.358,  42.940,  -29.030,  1.03000,  0,  241.920,  0.00000,  1.00000,  0.00000,  0.00000,  1.00000,  1,  100.0,  201.600,  60.480
4026,  '1',  123.000,  36.644,  191.060,  -50.020,  1.03000,  0,  492.000,  0.00000,  0.32770,  0.00000,  0.00000,  1.00000,  1,  100.0,  410.000,  123.000
4030,  '1',  165.749,  89.726,  290.040,  -75.930,  1.01000,  0,  746.880,  0.00000,  0.27970,  0.00000,  0.00000,  1.00000,  1,  100.0,  622.400,  186.720
4050,  '1',  97.965,  -28.800,  42.600,  -28.800,  1.00000,  0,  240.000,  0.00000,  1.00000,  0.00000,  0.00000,  1.00000,  1,  100.0,  200.000,  60.000
4058,  '1',  83.520,  16.076,  73.300,  -15.980,  1.03000,  0,  172.800,  0.00000,  0.13700,  0.00000,  0.00000,  1.00000,  1,  100.0,  144.000,  43.200
4059,  '1',  83.520,  17.313,  73.300,  -15.980,  1.03000,  0,  172.800,  0.00000,  0.15140,  0.00000,  0.00000,  1.00000,  1,  100.0,  144.000,  43.200
4060,  '1',  83.520,  11.823,  73.300,  -15.980,  1.03000,  0,  172.800,  0.00000,  0.13940,  0.00000,  0.00000,  1.00000,  1,  100.0,  144.000,  43.200
4061,  '1',  99.950,  16.488,  87.720,  -19.130,  1.03000,  0,  206.800,  0.00000,  0.21560,  0.00000,  0.00000,  1.00000,  1,  100.0,  172.330,  51.700
4062,  '1',  99.950,  12.470,  87.720,  -19.130,  1.03000,  0,  206.800,  0.00000,  0.25930,  0.00000,  0.00000,  1.00000,  1,  100.0,  172.330,  51.700
4063,  '1',  99.950,  17.530,  87.720,  -19.130,  1.03000,  0,  206.800,  0.00000,  0.14410,  0.00000,  0.00000,  1.00000,  1,  100.0,  172.330,  51.700
4082,  '1',  175.250,  20.453,  123.890,  -27.020,  1.04000,  0,  292.080,  0.00000,  0.13810,  0.00000,  0.00000,  1.00000,  1,  100.0,  243.400,  73.020
4083,  '1',  175.250,  21.392,  123.890,  -27.020,  1.04000,  0,  292.080,  0.00000,  0.15700,  0.00000,  0.00000,  1.00000,  1,  100.0,  243.400,  73.020
4084,  '1',  175.250,  35.644,  123.890,  -27.020,  1.04000,  0,  292.080,  0.00000,  0.19110,  0.00000,  0.00000,  1.00000,  1,  100.0,  243.400,  73.020
4085,  '1',  253.440,  40.688,  179.170,  -39.070,  1.04000,  0,  422.400,  0.00000,  0.31920,  0.00000,  0.00000,  1.00000,  1,  100.0,  352.000,  105.600
4105,  '1',  71.415,  15.655,  38.340,  -25.920,  1.01000,  0,  216.000,  0.00000,  1.00000,  0.00000,  0.00000,  1.00000,  1,  100.0,  180.000,  54.000
4115,  '1',  39.540,  27.742,  67.090,  -14.630,  1.04000,  0,  158.160,  0.00000,  0.11310,  0.00000,  0.00000,  1.00000,  1,  100.0,  131.800,  39.540
4116,  '1',  39.540,  25.980,  67.090,  -14.630,  1.04000,  0,  158.160,  0.00000,  0.15150,  0.00000,  0.00000,  1.00000,  1,  100.0,  131.800,  39.540
4142,  '1',  92.087,  23.615,  40.040,  -27.070,  1.04000,  0,  225.600,  0.00000,  1.00000,  0.00000,  0.00000,  1.00000,  1,  100.0,  188.000,  56.400
4153,  '1',  138.718,  57.047,  60.320,  -40.780,  1.04000,  0,  339.840,  0.00000,  1.00000,  0.00000,  0.00000,  1.00000,  1,  100.0,  283.200,  84.960
4160,  '1',  114.710,  49.535,  100.660,  -21.950,  1.03000,  0,  237.320,  0.00000,  0.18820,  0.00000,  0.00000,  1.00000,  1,  100.0,  197.770,  59.330
4161,  '1',  114.710,  22.649,  100.660,  -21.950,  1.03000,  0,  237.320,  0.00000,  0.12390,  0.00000,  0.00000,  1.00000,  1,  100.0,  197.770,  59.330
4162,  '1',  114.710,  20.438,  100.660,  -21.950,  1.03000,  0,  237.320,  0.00000,  0.17220,  0.00000,  0.00000,  1.00000,  1,  100.0,  197.770,  59.330
4166,  '1',  98.454,  -28.940,  42.810,  -28.940,  1.00000,  0,  241.200,  0.00000,  1.00000,  0.00000,  0.00000,  1.00000,  1,  100.0,  201.000,  60.300
4177,  '1',  73.473,  1.394,  31.950,  -21.600,  1.04000,  0,  180.000,  0.00000,  1.00000,  0.00000,  0.00000,  1.00000,  1,  100.0,  150.000,  45.000
4181,  '1',  79.387,  42.620,  42.620,  -28.810,  1.04000,  0,  240.120,  0.00000,  1.00000,  0.00000,  0.00000,  1.00000,  1,  100.0,  200.100,  60.030
4183,  '1',  99.434,  43.240,  43.240,  -29.230,  1.03000,  0,  243.600,  0.00000,  1.00000,  0.00000,  0.00000,  1.00000,  1,  100.0,  203.000,  60.900
4192,  '1',  896.490,  67.928,  688.320,  -150.120,  1.02000,  0,  1622.76,  0.00000,  0.14340,  0.00000,  0.00000,  1.00000,  1,  100.0,  1352.31,  405.690
4194,  '1',  98.748,  42.940,  42.940,  -29.030,  1.02000,  0,  241.920,  0.00000,  1.00000,  0.00000,  0.00000,  1.00000,  1,  100.0,  201.600,  60.480
4195,  '1',  45.064,  -13.250,  19.600,  -13.250,  1.00000,  0,  110.400,  0.00000,  1.00000,  0.00000,  0.00000,  1.00000,  1,  100.0,  92.000,  27.600
5020,  '1',  47.610,  -17.280,  25.560,  -17.280,  1.00000,  0,  144.000,  0.00000,  1.00000,  0.00000,  0.00000,  1.00000,  1,  100.0,  120.000,  36.000
5037,  '1',  265.280,  -17.944,  157.010,  -34.240,  1.02000,  0,  370.160,  0.00000,  0.29910,  0.00000,  0.00000,  1.00000,  1,  100.0,  308.470,  92.540
5038,  '1',  265.280,  -16.706,  157.010,  -34.240,  1.02000,  0,  370.160,  0.00000,  0.12330,  0.00000,  0.00000,  1.00000,  1,  100.0,  308.470,  92.540
5039,  '1',  265.280,  -34.240,  157.010,  -34.240,  1.02000,  0,  370.160,  0.00000,  0.21470,  0.00000,  0.00000,  1.00000,  1,  100.0,  308.470,  92.540
5040,  '1',  265.280,  -13.352,  157.010,  -34.240,  1.02000,  0,  370.160,  0.00000,  0.19240,  0.00000,  0.00000,  1.00000,  1,  100.0,  308.470,  92.540
5041,  '1',  265.280,  -21.014,  157.010,  -34.240,  1.02000,  0,  370.160,  0.00000,  0.11590,  0.00000,  0.00000,  1.00000,  1,  100.0,  308.470,  92.540
5042,  '1',  265.280,  -15.004,  157.010,  -34.240,  1.02000,  0,  370.160,  0.00000,  0.19130,  0.00000,  0.00000,  1.00000,  1,  100.0,  308.470,  92.540
5057,  '1',  272.950,  -35.230,  161.530,  -35.230,  1.00000,  0,  380.820,  0.00000,  0.19130,  0.00000,  0.00000,  1.00000,  1,  100.0,  317.350,  95.200
5058,  '1',  272.920,  -35.230,  161.530,  -35.230,  1.00000,  0,  380.820,  0.00000,  0.29820,  0.00000,  0.00000,  1.00000,  1,  100.0,  317.350,  95.200
5067,  '1',  376.910,  42.030,  223.080,  -48.650,  1.03000,  0,  525.920,  0.00000,  0.32610,  0.00000,  0.00000,  1.00000,  1,  100.0,  438.270,  131.480
5068,  '1',  376.910,  38.721,  223.080,  -48.650,  1.03000,  0,  525.920,  0.00000,  0.11690,  0.00000,  0.00000,  1.00000,  1,  100.0,  438.270,  131.480
5069,  '1',  376.910,  36.081,  223.080,  -48.650,  1.03000,  0,  525.920,  0.00000,  0.10560,  0.00000,  0.00000,  1.00000,  1,  100.0,  438.270,  131.480
5166,  '1',  73.370,  54.484,  64.390,  -14.040,  1.04000,  0,  151.800,  0.00000,  0.13910,  0.00000,  0.00000,  1.00000,  1,  100.0,  126.500,  37.950
5198,  '1',  59.513,  -21.600,  31.950,  -21.600,  1.00000,  0,  180.000,  0.00000,  1.00000,  0.00000,  0.00000,  1.00000,  1,  100.0,  150.000,  45.000
5206,  '1',  179.040,  -27.600,  126.570,  -27.600,  1.01000,  0,  298.400,  0.00000,  0.11980,  0.00000,  0.00000,  1.00000,  1,  100.0,  248.670,  74.600
5207,  '1',  179.040,  -27.600,  126.570,  -27.600,  1.01000,  0,  298.400,  0.00000,  0.18090,  0.00000,  0.00000,  1.00000,  1,  100.0,  248.670,  74.600
5208,  '1',  179.040,  -27.600,  126.570,  -27.600,  1.01000,  0,  298.400,  0.00000,  0.10560,  0.00000,  0.00000,  1.00000,  1,  100.0,  248.670,  74.600
5238,  '1',  89.269,  -32.400,  47.930,  -32.400,  1.00000,  0,  270.000,  0.00000,  1.00000,  0.00000,  0.00000,  1.00000,  1,  100.0,  225.000,  67.500
5243,  '1',  59.513,  -21.600,  31.950,  -21.600,  1.00000,  0,  180.000,  0.00000,  1.00000,  0.00000,  0.00000,  1.00000,  1,  100.0,  150.000,  45.000
5262,  '1',  1215.000,  -47.513,  447.120,  -99.630,  1.01000,  0,  1458.00,  0.00000,  0.26310,  0.00000,  0.00000,  1.00000,  1,  100.0,  1215.00,  364.500
5263,  '1',  1215.000,  -87.213,  447.120,  -99.630,  1.01000,  0,  1458.00,  0.00000,  0.16260,  0.00000,  0.00000,  1.00000,  1,  100.0,  1215.00,  364.500
5281,  '1',  155.280,  -29.720,  136.280,  -29.720,  1.00000,  0,  321.280,  0.00000,  0.10660,  0.00000,  0.00000,  1.00000,  1,  100.0,  267.730,  80.320
5282,  '1',  155.280,  -29.720,  136.280,  -29.720,  1.00000,  0,  321.280,  0.00000,  0.23940,  0.00000,  0.00000,  1.00000,  1,  100.0,  267.730,  80.320
5283,  '1',  155.280,  -29.720,  136.280,  -29.720,  1.00000,  0,  321.280,  0.00000,  0.10650,  0.00000,  0.00000,  1.00000,  1,  100.0,  267.730,  80.320
5302,  '1',  268.980,  77.521,  236.050,  -51.480,  1.04000,  0,  556.500,  0.00000,  0.13300,  0.00000,  0.00000,  1.00000,  1,  100.0,  463.750,  139.130
5303,  '1',  268.980,  103.064,  236.050,  -51.480,  1.04000,  0,  556.500,  0.00000,  0.17920,  0.00000,  0.00000,  1.00000,  1,  100.0,  463.750,  139.130
5319,  '1',  152.420,  -22.393,  133.770,  -29.170,  1.01000,  0,  315.360,  0.00000,  0.25070,  0.00000,  0.00000,  1.00000,  1,  100.0,  262.800,  78.840
5320,  '1',  152.420,  -21.429,  133.770,  -29.170,  1.01000,  0,  315.360,  0.00000,  0.28140,  0.00000,  0.00000,  1.00000,  1,  100.0,  262.800,  78.840
5321,  '1',  152.420,  -23.769,  133.770,  -29.170,  1.01000,  0,  315.360,  0.00000,  0.12810,  0.00000,  0.00000,  1.00000,  1,  100.0,  262.800,  78.840
5324,  '1',  244.300,  65.101,  144.590,  -31.530,  1.04000,  0,  340.880,  0.00000,  0.21670,  0.00000,  0.00000,  1.00000,  1,  100.0,  284.070,  85.220
5325,  '1',  244.300,  66.870,  144.590,  -31.530,  1.04000,  0,  340.880,  0.00000,  0.15030,  0.00000,  0.00000,  1.00000,  1,  100.0,  284.070,  85.220
5326,  '1',  244.300,  144.590,  144.590,  -31.530,  1.04000,  0,  340.880,  0.00000,  0.18810,  0.00000,  0.00000,  1.00000,  1,  100.0,  284.070,  85.220
5360,  '1',  312.190,  -92.811,  469.730,  -122.980,  1.01000,  0,  1209.60,  0.00000,  0.25510,  0.00000,  0.00000,  1.00000,  1,  100.0,  1008.00,  302.400
5364,  '1',  153.600,  -23.680,  108.590,  -23.680,  1.00000,  0,  256.000,  0.00000,  0.13030,  0.00000,  0.00000,  1.00000,  1,  100.0,  213.330,  64.000
5365,  '1',  153.600,  -23.680,  108.590,  -23.680,  1.00000,  0,  256.000,  0.00000,  0.11650,  0.00000,  0.00000,  1.00000,  1,  100.0,  213.330,  64.000
5366,  '1',  153.600,  -23.680,  108.590,  -23.680,  1.00000,  0,  256.000,  0.00000,  0.15490,  0.00000,  0.00000,  1.00000,  1,  100.0,  213.330,  64.000
5367,  '1',  153.600,  -23.680,  108.590,  -23.680,  1.00000,  0,  256.000,  0.00000,  0.10020,  0.00000,  0.00000,  1.00000,  1,  100.0,  213.330,  64.000
5368,  '1',  153.600,  -23.680,  108.590,  -23.680,  1.00000,  0,  256.000,  0.00000,  0.36180,  0.00000,  0.00000,  1.00000,  1,  100.0,  213.330,  64.000
5369,  '1',  153.600,  -23.680,  108.590,  -23.680,  1.00000,  0,  256.000,  0.00000,  0.24440,  0.00000,  0.00000,  1.00000,  1,  100.0,  213.330,  64.000
5382,  '1',  150.480,  101.032,  106.380,  -23.200,  1.04000,  0,  250.800,  0.00000,  0.24770,  0.00000,  0.00000,  1.00000,  1,  100.0,  209.000,  62.700
5383,  '1',  150.480,  88.889,  106.380,  -23.200,  1.04000,  0,  250.800,  0.00000,  0.39820,  0.00000,  0.00000,  1.00000,  1,  100.0,  209.000,  62.700
5399,  '1',  65.702,  35.270,  35.270,  -23.850,  1.04000,  0,  198.720,  0.00000,  1.00000,  0.00000,  0.00000,  1.00000,  1,  100.0,  165.600,  49.680
5415,  '1',  70.760,  -13.540,  62.100,  -13.540,  1.00000,  0,  146.400,  0.00000,  0.14030,  0.00000,  0.00000,  1.00000,  1,  100.0,  122.000,  36.600
5416,  '1',  70.760,  -13.540,  62.100,  -13.540,  1.00000,  0,  146.400,  0.00000,  0.26480,  0.00000,  0.00000,  1.00000,  1,  100.0,  122.000,  36.600
5417,  '1',  70.760,  -13.540,  62.100,  -13.540,  1.00000,  0,  146.400,  0.00000,  0.16960,  0.00000,  0.00000,  1.00000,  1,  100.0,  122.000,  36.600
5418,  '1',  68.900,  -13.190,  60.470,  -13.190,  1.00000,  0,  142.560,  0.00000,  0.34000,  0.00000,  0.00000,  1.00000,  1,  100.0,  118.800,  35.640
5419,  '1',  68.900,  -13.190,  60.470,  -13.190,  1.00000,  0,  142.560,  0.00000,  0.16420,  0.00000,  0.00000,  1.00000,  1,  100.0,  118.800,  35.640
5444,  '1',  1090.500,  -223.840,  1026.440,  -223.840,  1.01000,  0,  2419.92,  0.00000,  0.34260,  0.00000,  0.00000,  1.00000,  1,  100.0,  2016.60,  604.980
6006,  '1',  123.540,  21.558,  108.420,  -23.640,  1.04000,  0,  255.600,  0.00000,  0.18770,  0.00000,  0.00000,  1.00000,  1,  100.0,  213.000,  63.900
6007,  '1',  426.000,  36.093,  216.830,  -47.290,  1.04000,  0,  511.200,  0.00000,  0.13420,  0.00000,  0.00000,  1.00000,  1,  100.0,  426.000,  127.800
6008,  '1',  115.030,  19.185,  100.950,  -22.010,  1.04000,  0,  238.000,  0.00000,  0.20160,  0.00000,  0.00000,  1.00000,  1,  100.0,  198.330,  59.500
6009,  '1',  115.030,  11.752,  100.950,  -22.010,  1.04000,  0,  238.000,  0.00000,  0.18430,  0.00000,  0.00000,  1.00000,  1,  100.0,  198.330,  59.500
6010,  '1',  115.030,  15.718,  100.950,  -22.010,  1.04000,  0,  238.000,  0.00000,  0.15620,  0.00000,  0.00000,  1.00000,  1,  100.0,  198.330,  59.500
6042,  '1',  37.329,  11.264,  122.908,  -5.290,  1.04000,  0,  129.600,  0.00000,  0.18770,  0.00000,  0.00000,  1.00000,  1,  100.0,  320.200,  0.000
6069,  '1',  105.190,  0.869,  92.320,  -20.130,  1.03000,  0,  217.640,  0.00000,  0.22480,  0.00000,  0.00000,  1.00000,  1,  100.0,  181.370,  54.410
6070,  '1',  105.190,  0.883,  92.320,  -20.130,  1.03000,  0,  217.640,  0.00000,  0.24660,  0.00000,  0.00000,  1.00000,  1,  100.0,  181.370,  54.410
6071,  '1',  105.190,  1.888,  92.320,  -20.130,  1.03000,  0,  217.640,  0.00000,  0.15280,  0.00000,  0.00000,  1.00000,  1,  100.0,  181.370,  54.410
6072,  '1',  105.190,  1.249,  92.320,  -20.130,  1.03000,  0,  217.640,  0.00000,  0.19250,  0.00000,  0.00000,  1.00000,  1,  100.0,  181.370,  54.410
6073,  '1',  105.190,  0.823,  92.320,  -20.130,  1.03000,  0,  217.640,  0.00000,  0.14260,  0.00000,  0.00000,  1.00000,  1,  100.0,  181.370,  54.410
6074,  '1',  105.190,  0.159,  92.320,  -20.130,  1.03000,  0,  217.640,  0.00000,  0.11150,  0.00000,  0.00000,  1.00000,  1,  100.0,  181.370,  54.410
6078,  '1',  169.000,  -68.730,  262.510,  -68.730,  1.00000,  0,  676.000,  0.00000,  0.28900,  0.00000,  0.00000,  1.00000,  1,  100.0,  563.330,  169.000
6079,  '1',  169.000,  -68.730,  262.510,  -68.730,  1.00000,  0,  676.000,  0.00000,  0.25330,  0.00000,  0.00000,  1.00000,  1,  100.0,  563.330,  169.000
6080,  '1',  169.000,  -68.730,  262.510,  -68.730,  1.00000,  0,  676.000,  0.00000,  0.32510,  0.00000,  0.00000,  1.00000,  1,  100.0,  563.330,  169.000
6106,  '1',  36.300,  61.590,  61.590,  -13.430,  1.04000,  0,  145.200,  0.00000,  0.12010,  0.00000,  0.00000,  1.00000,  1,  100.0,  121.000,  36.300
6110,  '1',  177.180,  46.071,  275.220,  -72.050,  1.04000,  0,  708.720,  0.00000,  0.16800,  0.00000,  0.00000,  1.00000,  1,  100.0,  590.600,  177.180
6111,  '1',  198.450,  46.753,  308.260,  -80.700,  1.04000,  0,  793.800,  0.00000,  0.21900,  0.00000,  0.00000,  1.00000,  1,  100.0,  661.500,  198.450
6145,  '1',  383.560,  9.911,  227.010,  -49.510,  1.03000,  0,  535.200,  0.00000,  0.14770,  0.00000,  0.00000,  1.00000,  1,  100.0,  446.000,  133.800
6146,  '1',  383.560,  10.026,  227.010,  -49.510,  1.03000,  0,  535.200,  0.00000,  0.11950,  0.00000,  0.00000,  1.00000,  1,  100.0,  446.000,  133.800
6147,  '1',  265.493,  5.356,  474.390,  -103.450,  1.03000,  0,  1118.40,  0.00000,  0.10440,  0.00000,  0.00000,  1.00000,  1,  100.0,  932.000,  279.600
6148,  '1',  216.600,  5.396,  367.500,  -80.140,  1.03000,  0,  866.400,  0.00000,  0.23830,  0.00000,  0.00000,  1.00000,  1,  100.0,  722.000,  216.600
6149,  '1',  216.600,  11.665,  367.500,  -80.140,  1.03000,  0,  866.400,  0.00000,  0.12770,  0.00000,  0.00000,  1.00000,  1,  100.0,  722.000,  216.600
6164,  '1',  169.240,  14.704,  119.640,  -26.090,  1.03000,  0,  282.060,  0.00000,  0.30070,  0.00000,  0.00000,  1.00000,  1,  100.0,  235.050,  70.520
6165,  '1',  169.240,  12.576,  119.640,  -26.090,  1.03000,  0,  282.060,  0.00000,  0.18390,  0.00000,  0.00000,  1.00000,  1,  100.0,  235.050,  70.520
6166,  '1',  169.240,  30.037,  119.640,  -26.090,  1.03000,  0,  282.060,  0.00000,  0.25100,  0.00000,  0.00000,  1.00000,  1,  100.0,  235.050,  70.520
6167,  '1',  169.240,  16.428,  119.640,  -26.090,  1.03000,  0,  282.060,  0.00000,  0.13970,  0.00000,  0.00000,  1.00000,  1,  100.0,  235.050,  70.520
6214,  '1',  64.387,  3.355,  212.059,  -9.130,  1.04000,  0,  223.600,  0.00000,  0.21900,  0.00000,  0.00000,  1.00000,  1,  100.0,  552.300,  0.000
6215,  '1',  64.387,  14.195,  212.059,  -9.130,  1.04000,  0,  223.600,  0.00000,  0.20110,  0.00000,  0.00000,  1.00000,  1,  100.0,  552.300,  0.000
6216,  '1',  64.387,  6.116,  212.059,  -9.130,  1.04000,  0,  223.600,  0.00000,  0.37760,  0.00000,  0.00000,  1.00000,  1,  100.0,  552.300,  0.000
6243,  '1',  131.760,  36.067,  93.150,  -20.310,  1.04000,  0,  219.600,  0.00000,  0.28800,  0.00000,  0.00000,  1.00000,  1,  100.0,  183.000,  54.900
6244,  '1',  256.280,  43.930,  151.680,  -33.080,  1.04000,  0,  357.600,  0.00000,  0.12500,  0.00000,  0.00000,  1.00000,  1,  100.0,  298.000,  89.400
6245,  '1',  256.280,  50.866,  151.680,  -33.080,  1.04000,  0,  357.600,  0.00000,  0.24960,  0.00000,  0.00000,  1.00000,  1,  100.0,  298.000,  89.400
6246,  '1',  256.280,  96.516,  151.680,  -33.080,  1.04000,  0,  357.600,  0.00000,  0.16990,  0.00000,  0.00000,  1.00000,  1,  100.0,  298.000,  89.400
6247,  '1',  132.000,  79.199,  93.320,  -20.350,  1.04000,  0,  220.000,  0.00000,  0.11730,  0.00000,  0.00000,  1.00000,  1,  100.0,  183.330,  55.000
...
 0 /End of Generator data, Begin Branch data
1004,  1023,  '99',  0.01127,  0.34554,  0.00000,  0.00,  0.00,  0.00,  0.00000,  0.000,  0.00000,  0.00000,  0.00000,  0.00000,  1
1004,  1057,  '99',  0.63513,  4.15874,  0.00000,  0.00,  0.00,  0.00,  0.00000,  0.000,  0.00000,  0.00000,  0.00000,  0.00000,  1
1004,  2019,  '99',  0.12461,  1.18585,  0.00000,  0.00,  0.00,  0.00,  0.00000,  0.000,  0.00000,  0.00000,  0.00000,  0.00000,  1
1004,  2062,  '99',  0.94835,  4.57288,  0.00000,  0.00,  0.00,  0.00,  0.00000,  0.000,  0.00000,  0.00000,  0.00000,  0.00000,  1
1004,  2100,  '99',  0.05234,  0.64437,  0.00000,  0.00,  0.00,  0.00,  0.00000,  0.000,  0.00000,  0.00000,  0.00000,  0.00000,  1
1004,  2127,  '99',  0.18063,  1.02728,  0.00000,  0.00,  0.00,  0.00,  0.00000,  0.000,  0.00000,  0.00000,  0.00000,  0.00000,  1
1004,  3034,  '99',  0.41052,  3.14891,  0.00000,  0.00,  0.00,  0.00,  0.00000,  0.000,  0.00000,  0.00000,  0.00000,  0.00000,  1
1004,  3039,  '99',  0.03315,  0.33882,  0.00000,  0.00,  0.00,  0.00,  0.00000,  0.000,  0.00000,  0.00000,  0.00000,  0.00000,  1
1004,  3048,  '99',  0.04556,  0.33766,  0.00000,  0.00,  0.00,  0.00,  0.00000,  0.000,  0.00000,  0.00000,  0.00000,  0.00000,  1
1004,  3081,  '99',  0.04045,  0.42863,  0.00000,  0.00,  0.00,  0.00,  0.00000,  0.000,  0.00000,  0.00000,  0.00000,  0.00000,  1
1004,  3086,  '99',  0.55726,  4.01643,  0.00000,  0.00,  0.00,  0.00,  0.00000,  0.000,  0.00000,  0.00000,  0.00000,  0.00000,  1
1004,  3087,  '99',  0.55726,  4.01643,  0.00000,  0.00,  0.00,  0.00,  0.00000,  0.000,  0.00000,  0.00000,  0.00000,  0.00000,  1
1004,  3098,  '99',  0.03025,  0.47062,  0.00000,  0.00,  0.00,  0.00,  0.00000,  0.000,  0.00000,  0.00000,  0.00000,  0.00000,  1
1004,  3110,  '99',  0.06267,  0.51401,  0.00000,  0.00,  0.00,  0.00,  0.00000,  0.000,  0.00000,  0.00000,  0.00000,  0.00000,  1
1004,  3117,  '99',  0.42416,  4.16516,  0.00000,  0.00,  0.00,  0.00,  0.00000,  0.000,  0.00000,  0.00000,  0.00000,  0.00000,  1
1004,  3118,  '99',  0.35732,  2.87013,  0.00000,  0.00,  0.00,  0.00,  0.00000,  0.000,  0.00000,  0.00000,  0.00000,  0.00000,  1
1004,  3129,  '99',  1.41101,  4.42562,  0.00000,  0.00,  0.00,  0.00,  0.00000,  0.000,  0.00000,  0.00000,  0.00000,  0.00000,  1
1009,  1033,  '99',  0.07888,  0.70872,  0.00000,  0.00,  0.00,  0.00,  0.00000,  0.000,  0.00000,  0.00000,  0.00000,  0.00000,  1
1009,  1039,  '99',  1.39017,  4.73532,  0.00000,  0.00,  0.00,  0.00,  0.00000,  0.000,  0.00000,  0.00000,  0.00000,  0.00000,  1
1009,  1070,  '99',  -0.00807,  0.40194,  0.00000,  0.00,  0.00,  0.00,  0.00000,  0.000,  0.00000,  0.00000,  0.00000,  0.00000,  1
1009,  1082,  '99',  0.09863,  0.46285,  0.00000,  0.00,  0.00,  0.00,  0.00000,  0.000,  0.00000,  0.00000,  0.00000,  0.00000,  1
1009,  1088,  '99',  0.64239,  2.67081,  0.00000,  0.00,  0.00,  0.00,  0.00000,  0.000,  0.00000,  0.00000,  0.00000,  0.00000,  1
1021,  1026,  '99',  0.01394,  0.81991,  0.00000,  0.00,  0.00,  0.00,  0.00000,  0.000,  0.00000,  0.00000,  0.00000,  0.00000,  1
1021,  1035,  '99',  0.64527,  4.15388,  0.00000,  0.00,  0.00,  0.00,  0.00000,  0.000,  0.00000,  0.00000,  0.00000,  0.00000,  1
1021,  1042,  '99',  0.55547,  4.20579,  0.00000,  0.00,  0.00,  0.00,  0.00000,  0.000,  0.00000,  0.00000,  0.00000,  0.00000,  1
1021,  1084,  '99',  0.01200,  0.19518,  0.00000,  0.00,  0.00,  0.00,  0.00000,  0.000,  0.00000,  0.00000,  0.00000,  0.00000,  1
1021,  3048,  '99',  0.54876,  4.60809,  0.00000,  0.00,  0.00,  0.00,  0.00000,  0.000,  0.00000,  0.00000,  0.00000,  0.00000,  1
1021,  3112,  '99',  0.45087,  2.35436,  0.00000,  0.00,  0.00,  0.00,  0.00000,  0.000,  0.00000,  0.00000,  0.00000,  0.00000,  1
1021,  3113,  '99',  0.45087,  2.35436,  0.00000,  0.00,  0.00,  0.00,  0.00000,  0.000,  0.00000,  0.00000,  0.00000,  0.00000,  1
1023,  2100,  '99',  0.09414,  4.32806,  0.00000,  0.00,  0.00,  0.00,  0.00000,  0.000,  0.00000,  0.00000,  0.00000,  0.00000,  1
1023,  3098,  '99',  0.01725,  3.10356,  0.00000,  0.00,  0.00,  0.00,  0.00000,  0.000,  0.00000,  0.00000,  0.00000,  0.00000,  1
1023,  3110,  '99',  0.08546,  0.92655,  0.00000,  0.00,  0.00,  0.00,  0.00000,  0.000,  0.00000,  0.00000,  0.00000,  0.00000,  1
1026,  1035,  '99',  0.42507,  2.87794,  0.00000,  0.00,  0.00,  0.00,  0.00000,  0.000,  0.00000,  0.00000,  0.00000,  0.00000,  1
1026,  1042,  '99',  0.36292,  2.91738,  0.00000,  0.00,  0.00,  0.00,  0.00000,  0.000,  0.00000,  0.00000,  0.00000,  0.00000,  1
1026,  1066,  '99',  0.53250,  3.90137,  0.00000,  0.00,  0.00,  0.00,  0.00000,  0.000,  0.00000,  0.00000,  0.00000,  0.00000,  1
1026,  1084,  '99',  0.07253,  0.48742,  0.00000,  0.00,  0.00,  0.00,  0.00000,  0.000,  0.00000,  0.00000,  0.00000,  0.00000,  1
1033,  1039,  '99',  0.07438,  0.91282,  0.00000,  0.00,  0.00,  0.00,  0.00000,  0.000,  0.00000,  0.00000,  0.00000,  0.00000,  1
1033,  1070,  '99',  0.11795,  0.88378,  0.00000,  0.00,  0.00,  0.00,  0.00000,  0.000,  0.00000,  0.00000,  0.00000,  0.00000,  1
1033,  1081,  '99',  0.00300,  0.03093,  0.00000,  0.00,  0.00,  0.00,  0.00000,  0.000,  0.00000,  0.00000,  0.00000,  0.00000,  1
1033,  1082,  '99',  0.10747,  0.36209,  0.00000,  0.00,  0.00,  0.00,  0.00000,  0.000,  0.00000,  0.00000,  0.00000,  0.00000,  1
1033,  1088,  '99',  0.01624,  0.50947,  0.00000,  0.00,  0.00,  0.00,  0.00000,  0.000,  0.00000,  0.00000,  0.00000,  0.00000,  1
1033,  3020,  '99',  0.03750,  0.84804,  0.00000,  0.00,  0.00,  0.00,  0.00000,  0.000,  0.00000,  0.00000,  0.00000,  0.00000,  1
1033,  4115,  '99',  0.16720,  3.78996,  0.00000,  0.00,  0.00,  0.00,  0.00000,  0.000,  0.00000,  0.00000,  0.00000,  0.00000,  1
1033,  4116,  '99',  0.21500,  3.98601,  0.00000,  0.00,  0.00,  0.00,  0.00000,  0.000,  0.00000,  0.00000,  0.00000,  0.00000,  1
1033,  4195,  '99',  0.30929,  2.71997,  0.00000,  0.00,  0.00,  0.00,  0.00000,  0.000,  0.00000,  0.00000,  0.00000,  0.00000,  1
1035,  1042,  '99',  0.00845,  0.65445,  0.00000,  0.00,  0.00,  0.00,  0.00000,  0.000,  0.00000,  0.00000,  0.00000,  0.00000,  1
1035,  1057,  '99',  0.10314,  2.22628,  0.00000,  0.00,  0.00,  0.00,  0.00000,  0.000,  0.00000,  0.00000,  0.00000,  0.00000,  1
1035,  1066,  '99',  0.03400,  0.92332,  0.00000,  0.00,  0.00,  0.00,  0.00000,  0.000,  0.00000,  0.00000,  0.00000,  0.00000,  1
1035,  1084,  '99',  0.67661,  2.27388,  0.00000,  0.00,  0.00,  0.00,  0.00000,  0.000,  0.00000,  0.00000,  0.00000,  0.00000,  1
1035,  1088,  '99',  0.05662,  0.92976,  0.00000,  0.00,  0.00,  0.00,  0.00000,  0.000,  0.00000,  0.00000,  0.00000,  0.00000,  1
1039,  1048,  '99',  0.04035,  3.39205,  0.00000,  0.00,  0.00,  0.00,  0.00000,  0.000,  0.00000,  0.00000,  0.00000,  0.00000,  1
1039,  1053,  '99',  -0.05855,  4.53897,  0.00000,  0.00,  0.00,  0.00,  0.00000,  0.000,  0.00000,  0.00000,  0.00000,  0.00000,  1
1039,  1082,  '99',  0.01251,  0.17236,  0.00000,  0.00,  0.00,  0.00,  0.00000,  0.000,  0.00000,  0.00000,  0.00000,  0.00000,  1
1039,  1088,  '99',  0.64951,  3.18917,  0.00000,  0.00,  0.00,  0.00,  0.00000,  0.000,  0.00000,  0.00000,  0.00000,  0.00000,  1
1042,  1057,  '99',  -0.00894,  1.64629,  0.00000,  0.00,  0.00,  0.00,  0.00000,  0.000,  0.00000,  0.00000,  0.00000,  0.00000,  1
1042,  1066,  '99',  -0.01421,  0.56288,  0.00000,  0.00,  0.00,  0.00,  0.00000,  0.000,  0.00000,  0.00000,  0.00000,  0.00000,  1
1042,  1084,  '99',  0.61374,  2.25522,  0.00000,  0.00,  0.00,  0.00,  0.00000,  0.000,  0.00000,  0.00000,  0.00000,  0.00000,  1
1042,  1088,  '99',  0.27233,  3.38625,  0.00000,  0.00,  0.00,  0.00,  0.00000,  0.000,  0.00000,  0.00000,  0.00000,  0.00000,  1
1048,  1049,  '99',  -0.00067,  0.36801,  0.00000,  0.00,  0.00,  0.00,  0.00000,  0.000,  0.00000,  0.00000,  0.00000,  0.00000,  1
1048,  1053,  '99',  0.00024,  0.27511,  0.00000,  0.00,  0.00,  0.00,  0.00000,  0.000,  0.00000,  0.00000,  0.00000,  0.00000,  1
1048,  1082,  '99',  0.42530,  1.93314,  0.00000,  0.00,  0.00,  0.00,  0.00000,  0.000,  0.00000,  0.00000,  0.00000,  0.00000,  1
1048,  1090,  '99',  0.07417,  0.48556,  0.00000,  0.00,  0.00,  0.00,  0.00000,  0.000,  0.00000,  0.00000,  0.00000,  0.00000,  1
1049,  1053,  '99',  -0.01310,  0.49227,  0.00000,  0.00,  0.00,  0.00,  0.00000,  0.000,  0.00000,  0.00000,  0.00000,  0.00000,  1
1049,  1082,  '99',  0.66593,  3.47991,  0.00000,  0.00,  0.00,  0.00,  0.00000,  0.000,  0.00000,  0.00000,  0.00000,  0.00000,  1
1049,  1090,  '99',  0.10883,  0.87247,  0.00000,  0.00,  0.00,  0.00,  0.00000,  0.000,  0.00000,  0.00000,  0.00000,  0.00000,  1
1053,  1081,  '99',  0.00299,  0.02991,  0.00000,  0.00,  0.00,  0.00,  0.00000,  0.000,  0.00000,  0.00000,  0.00000,  0.00000,  1
1053,  1082,  '99',  0.50481,  2.60012,  0.00000,  0.00,  0.00,  0.00,  0.00000,  0.000,  0.00000,  0.00000,  0.00000,  0.00000,  1
1053,  1090,  '99',  0.08311,  0.65201,  0.00000,  0.00,  0.00,  0.00,  0.00000,  0.000,  0.00000,  0.00000,  0.00000,  0.00000,  1
1057,  1066,  '99',  -0.02470,  1.43706,  0.00000,  0.00,  0.00,  0.00,  0.00000,  0.000,  0.00000,  0.00000,  0.00000,  0.00000,  1
1057,  1076,  '99',  0.18588,  3.40285,  0.00000,  0.00,  0.00,  0.00,  0.00000,  0.000,  0.00000,  0.00000,  0.00000,  0.00000,  1
1057,  1081,  '99',  0.23851,  4.37795,  0.00000,  0.00,  0.00,  0.00,  0.00000,  0.000,  0.00000,  0.00000,  0.00000,  0.00000,  1
1057,  1084,  '99',  0.49756,  2.68039,  0.00000,  0.00,  0.00,  0.00,  0.00000,  0.000,  0.00000,  0.00000,  0.00000,  0.00000,  1
1057,  1090,  '99',  0.43794,  3.20496,  0.00000,  0.00,  0.00,  0.00,  0.00000,  0.000,  0.00000,  0.00000,  0.00000,  0.00000,  1
1057,  3048,  '99',  0.14821,  2.96157,  0.00000,  0.00,  0.00,  0.00,  0.00000,  0.000,  0.00000,  0.00000,  0.00000,  0.00000,  1
...